37

C       3.698567111036946      1.292537257384653     30.138740422102003
C       4.063213117956511      0.923998578438701     31.548476218945254
H       2.955579335487150      2.101590667039368     30.117148518154661
H       3.286772435020345      0.424976208626008     29.609464644201651
H       4.572924780784960      1.658401520788338     29.582764399124606
C       4.643672009585085      1.962986276663795     32.456460904520156
C       3.898040918190786     -0.304911248473125     32.061478809781590
O       4.981125110226484      1.788711535470584     33.615048231264709
O       4.751098422075237      3.174226676223448     31.810722911552812
H       4.179741748606605     -0.517828645898641     33.091631968407142
H       3.479240580639653     -1.113545654116988     31.463256954948662
C       5.272635751899724      4.264030117081466     32.598768276399504
H       4.879332622800348      5.169390922593482     32.123698392006517
H       4.897213469237442      4.184725062760387     33.625898241624014
C       6.802546546843672      4.244394355549590     32.574933380814223
C       7.369520465888851      5.450384880717097     33.297758509475408
H       7.167734882551994      3.336868084094871     33.072692520536123
H       7.166995257172275      4.248592051098198     31.539463067707750
C       8.931861925486302      5.458235075036004     33.362893348754980
F       6.965461190458259      6.619810870237888     32.679092389036093
F       6.899837656395415      5.490188903048553     34.582895718807357
C       9.576493678750492      6.690403655280837     34.125105228185390
F       9.356832318234577      4.290455652504303     33.939820879436006
F       9.379456512839539      5.449909298958596     32.080168472078384
C      11.139059363845144      6.696114642246875     34.104931617889775
F       9.163751388900039      7.859468830825567     33.553203301323592
F       9.181599298706455      6.646040471938391     35.431411779936525
C      11.791770648686498      7.894705590965017     34.896451289101918
F      11.537842258104963      5.516009874090250     34.665980117792387
F      11.573322201945922      6.776952853199534     32.813801002802158
C      13.361387614000037      7.894705590965017     34.896451289101918
F      11.417432167856989      9.083796918726945     34.356002251835633
F      11.355008136536322      7.868317601956646     36.178290645361471
F      13.794232397500938      8.976631520522330     35.572536611758437
F      13.843117116111648      6.784169553163988     35.501470502400046
F      13.827772077809229      7.990487740333284     33.629603768996724
Ag     17.061387614000036      7.894705590965017     34.896451289101918
