36
PFOMA_optimised
C        18.9398367932       13.7243527026       19.4066599550
C        20.1939214990       14.2447354141       20.0490117818
H        18.1136536738       13.6717003555       20.1289574340
H        19.1075285087       12.7227432038       18.9931049066
H        18.6025626714       14.3851548766       18.5960712889
C        20.1904731333       15.6005868099       20.6834558317
C        21.3456318901       13.5575802434       20.0943309044
O        21.1403177626       16.1332279745       21.2317800462
O        18.9511008405       16.1902223323       20.5743340385
H        22.2261971304       13.9829179699       20.5734941148
H        21.4259179752       12.5630516939       19.6565868912
C        18.8182940102       17.4934960270       21.1780957843
H        17.7496391618       17.5960267460       21.3960893650
H        19.3968931692       17.5257649794       22.1089066541
C        19.2924374001       18.5743809503       20.2042084529
C        19.0496118521       19.9583766362       20.7733661050
H        20.3680192786       18.4580495651       20.0189485097
H        18.7592972279       18.4859422069       19.2487088988
C        19.5693096006       21.1095727702       19.8514785194
F        17.6984015984       20.1639013306       20.9868122619
F        19.6735209245       20.0828735744       21.9853900034
C        19.3562154521       22.5787190050       20.4091134190
F        20.8998971402       20.9058530186       19.5961570508
F        18.9173927048       20.9890439766       18.6656157477
C        19.8245289230       23.6996815338       19.4261705864
F        18.0316196813       22.7937299006       20.6608230835
F        20.0770509891       22.7133454857       21.5609025967
C        19.6563099516       25.1643300655       19.9880092909
F        21.1459940507       23.4642460992       19.1717092883
F        19.0990922421       23.6206224529       18.2730753701
C        20.1434531014       26.2937940628       19.0129708054
F        18.3487610865       25.4298177164       20.2448845884
F        20.3360178968       25.2713548736       21.1546766612
F        19.9192392883       27.4902890994       19.5901514362
F        21.4679155421       26.1751232195       18.7617371949
F        19.4323168149       26.2551714413       17.8621516178

